Version 4.1
SHEET 1 5824 1284
WIRE 272 -304 224 -304
WIRE 272 -272 272 -304
WIRE 4688 -240 4400 -240
WIRE 1184 -224 944 -224
WIRE 2832 -224 2592 -224
WIRE 3072 -224 2832 -224
WIRE 3840 -224 3552 -224
WIRE 1424 -208 1360 -208
WIRE 1616 -208 1488 -208
WIRE 1728 -208 1616 -208
WIRE 1872 -208 1792 -208
WIRE 2160 -208 1968 -208
WIRE 512 -192 288 -192
WIRE 2592 -192 2592 -224
WIRE 2832 -192 2832 -224
WIRE 1616 -160 1616 -208
WIRE 944 -96 944 -224
WIRE 1040 -96 944 -96
WIRE 4400 -96 4400 -240
WIRE 4496 -96 4400 -96
WIRE 224 -80 224 -304
WIRE 224 -80 32 -80
WIRE 288 -80 288 -192
WIRE 320 -80 288 -80
WIRE 1136 -80 1104 -80
WIRE 1184 -80 1184 -224
WIRE 1184 -80 1136 -80
WIRE 1360 -80 1360 -208
WIRE 1360 -80 1184 -80
WIRE 1968 -80 1968 -208
WIRE 2000 -80 1968 -80
WIRE 3552 -80 3552 -224
WIRE 3648 -80 3552 -80
WIRE 4592 -80 4560 -80
WIRE 4688 -80 4688 -240
WIRE 4688 -80 4592 -80
WIRE 4800 -80 4688 -80
WIRE 512 -64 512 -192
WIRE 512 -64 384 -64
WIRE 592 -64 512 -64
WIRE 720 -64 656 -64
WIRE 784 -64 720 -64
WIRE 912 -64 848 -64
WIRE 1040 -64 912 -64
WIRE 1616 -64 1616 -80
WIRE 2160 -64 2160 -208
WIRE 2160 -64 2064 -64
WIRE 2272 -64 2160 -64
WIRE 2480 -64 2352 -64
WIRE 2592 -64 2592 -128
WIRE 2592 -64 2480 -64
WIRE 2672 -64 2592 -64
WIRE 2832 -64 2832 -112
WIRE 2832 -64 2736 -64
WIRE 2928 -64 2832 -64
WIRE 3744 -64 3712 -64
WIRE 3840 -64 3840 -224
WIRE 3840 -64 3744 -64
WIRE 4032 -64 3840 -64
WIRE 4176 -64 4112 -64
WIRE 4240 -64 4176 -64
WIRE 4368 -64 4320 -64
WIRE 4496 -64 4368 -64
WIRE 320 -48 32 -48
WIRE 1872 -48 1872 -208
WIRE 2000 -48 1872 -48
WIRE 3072 -48 3072 -224
WIRE 3072 -48 2992 -48
WIRE 3184 -48 3072 -48
WIRE 3328 -48 3264 -48
WIRE 3392 -48 3328 -48
WIRE 3520 -48 3472 -48
WIRE 3648 -48 3520 -48
WIRE 2928 -32 2880 -32
WIRE 720 0 720 -64
WIRE 912 0 912 -64
WIRE 2480 0 2480 -64
WIRE 4176 0 4176 -64
WIRE 4368 0 4368 -64
WIRE 2160 16 2160 -64
WIRE 3328 16 3328 -48
WIRE 3520 16 3520 -48
WIRE 1360 64 1360 -80
WIRE 1408 64 1360 64
WIRE 1664 64 1488 64
WIRE 1712 64 1664 64
WIRE 1872 64 1872 -48
WIRE 1872 64 1792 64
WIRE 2880 64 2880 -32
WIRE 2160 144 2160 96
WIRE 2160 144 2064 144
WIRE 2480 144 2480 80
WIRE 2000 160 1952 160
WIRE 720 176 720 80
WIRE 1136 176 1136 -80
WIRE 1136 176 720 176
WIRE 1664 176 1664 64
WIRE 2128 176 2064 176
WIRE 4176 176 4176 64
WIRE 4592 176 4592 -80
WIRE 4592 176 4176 176
WIRE 3328 192 3328 80
WIRE 3744 192 3744 -64
WIRE 3744 192 3328 192
WIRE 1616 272 1616 16
WIRE 1664 272 1664 240
WIRE 1664 272 1616 272
WIRE 1952 272 1952 160
WIRE 1952 272 1664 272
WIRE 2128 272 2128 176
WIRE 2128 272 1952 272
WIRE 2160 272 2160 144
FLAG 272 -272 0
FLAG 0 320 0
FLAG 96 320 0
FLAG 0 240 +12v
FLAG 352 -96 +12v
FLAG 96 240 -12v
FLAG 352 -32 -12v
FLAG 1072 -112 +12v
FLAG 1072 -48 -12v
FLAG 912 80 0
FLAG 4800 -80 Vout
IOPIN 4800 -80 Out
FLAG 4528 -112 +12v
FLAG 4528 -48 -12v
FLAG 4368 64 0
FLAG 2032 -96 +12v
FLAG 2032 -32 -12v
FLAG 2880 64 0
FLAG 2480 144 0
FLAG 2960 -80 +12v
FLAG 2960 -16 -12v
FLAG 2160 352 0
FLAG 2032 192 +12v
FLAG 2032 128 -12v
FLAG 3680 -96 +12v
FLAG 3680 -32 -12v
FLAG 3520 80 0
SYMBOL COMPOSITE_SRC -32 -64 R180
SYMATTR InstName U1
SYMBOL lib\\lib\\sym\\OpAmps\\UniversalOpAmp 352 -64 R0
SYMATTR InstName U2
SYMBOL voltage 0 224 R0
WINDOW 123 0 0 Left 0
WINDOW 39 0 0 Left 0
SYMATTR InstName V1
SYMATTR Value 12
SYMBOL voltage 96 224 R0
WINDOW 123 0 0 Left 0
WINDOW 39 0 0 Left 0
SYMATTR InstName V2
SYMATTR Value 12
SYMBOL res 704 -16 R0
SYMATTR InstName R1
SYMATTR Value 5k
SYMBOL res 896 -16 R0
SYMATTR InstName R2
SYMATTR Value 5k
SYMBOL cap 656 -80 R90
WINDOW 0 0 32 VBottom 2
WINDOW 3 32 32 VTop 2
SYMATTR InstName C1
SYMATTR Value 10n
SYMBOL cap 848 -80 R90
WINDOW 0 0 32 VBottom 2
WINDOW 3 32 32 VTop 2
SYMATTR InstName C2
SYMATTR Value 10n
SYMBOL lib\\lib\\sym\\OpAmps\\UniversalOpAmp 1072 -80 R0
SYMATTR InstName U3
SYMBOL res 4128 -80 R90
WINDOW 0 0 56 VBottom 2
WINDOW 3 32 56 VTop 2
SYMATTR InstName R8
SYMATTR Value 3k
SYMBOL res 4336 -80 R90
WINDOW 0 0 56 VBottom 2
WINDOW 3 32 56 VTop 2
SYMATTR InstName R9
SYMATTR Value 3k
SYMBOL cap 4192 64 R180
WINDOW 0 24 56 Left 2
WINDOW 3 24 8 Left 2
SYMATTR InstName C8
SYMATTR Value 12n
SYMBOL cap 4384 64 R180
WINDOW 0 24 56 Left 2
WINDOW 3 24 8 Left 2
SYMATTR InstName C9
SYMATTR Value 12n
SYMBOL lib\\lib\\sym\\OpAmps\\UniversalOpAmp 4528 -80 R0
SYMATTR InstName U6
SYMBOL res 1600 -176 R0
SYMATTR InstName R10
SYMATTR Value 12k
SYMBOL res 1504 48 R90
WINDOW 0 0 56 VBottom 2
WINDOW 3 32 56 VTop 2
SYMATTR InstName R15
SYMATTR Value 26.1k
SYMBOL res 1808 48 R90
WINDOW 0 0 56 VBottom 2
WINDOW 3 32 56 VTop 2
SYMATTR InstName R16
SYMATTR Value 26.1k
SYMBOL cap 1648 176 R0
SYMATTR InstName C10
SYMATTR Value 20n
SYMBOL cap 1488 -224 R90
WINDOW 0 0 32 VBottom 2
WINDOW 3 32 32 VTop 2
SYMATTR InstName C15
SYMATTR Value 10n
SYMBOL cap 1792 -224 R90
WINDOW 0 0 32 VBottom 2
WINDOW 3 32 32 VTop 2
SYMATTR InstName C16
SYMATTR Value 10n
SYMBOL lib\\lib\\sym\\OpAmps\\UniversalOpAmp 2032 -64 R0
SYMATTR InstName U9
SYMBOL res 2464 -16 R0
SYMATTR InstName R18
SYMATTR Value 150
SYMBOL res 2368 -80 R90
WINDOW 0 0 56 VBottom 2
WINDOW 3 32 56 VTop 2
SYMATTR InstName R19
SYMATTR Value 150
SYMBOL cap 2736 -80 R90
WINDOW 0 0 32 VBottom 2
WINDOW 3 32 32 VTop 2
SYMATTR InstName C18
SYMATTR Value 10n
SYMBOL cap 2608 -128 R180
WINDOW 0 24 56 Left 2
WINDOW 3 24 8 Left 2
SYMATTR InstName C19
SYMATTR Value 10n
SYMBOL res 2848 -96 R180
WINDOW 0 36 76 Left 2
WINDOW 3 36 40 Left 2
SYMATTR InstName R20
SYMATTR Value 90k
SYMBOL lib\\lib\\sym\\OpAmps\\UniversalOpAmp 2960 -48 R0
SYMATTR InstName U10
SYMBOL lib\\lib\\sym\\OpAmps\\UniversalOpAmp 2032 160 R180
SYMATTR InstName U11
SYMBOL res 2144 0 R0
SYMATTR InstName R5
SYMATTR Value 10k
SYMBOL res 2144 256 R0
SYMATTR InstName R21
SYMATTR Value 82k
SYMBOL res 1600 -80 R0
SYMATTR InstName R22
SYMATTR Value 2k
SYMBOL res 3280 -64 R90
WINDOW 0 0 56 VBottom 2
WINDOW 3 32 56 VTop 2
SYMATTR InstName R3
SYMATTR Value 3k
SYMBOL res 3488 -64 R90
WINDOW 0 0 56 VBottom 2
WINDOW 3 32 56 VTop 2
SYMATTR InstName R4
SYMATTR Value 3k
SYMBOL cap 3344 80 R180
WINDOW 0 24 56 Left 2
WINDOW 3 24 8 Left 2
SYMATTR InstName C3
SYMATTR Value 12n
SYMBOL cap 3536 80 R180
WINDOW 0 24 56 Left 2
WINDOW 3 24 8 Left 2
SYMATTR InstName C4
SYMATTR Value 12n
SYMBOL lib\\lib\\sym\\OpAmps\\UniversalOpAmp 3680 -64 R0
SYMATTR InstName U4
TEXT -168 -208 Left 2 !.include composite_blackbox.lib
TEXT -168 24 Left 2 !.tran 0 200m 150m 1u
