Version 4.1
SHEET 1 1856 680
WIRE 0 -1072 -240 -1072
WIRE 240 -1072 0 -1072
WIRE 0 -1040 0 -1072
WIRE -2560 -928 -2608 -928
WIRE -2560 -896 -2560 -928
WIRE 1632 -864 1344 -864
WIRE -1648 -848 -1888 -848
WIRE -240 -848 -240 -1072
WIRE 0 -848 0 -960
WIRE 0 -848 -240 -848
WIRE 240 -848 240 -1072
WIRE 240 -848 0 -848
WIRE 944 -848 656 -848
WIRE -1408 -832 -1472 -832
WIRE -1216 -832 -1344 -832
WIRE -1104 -832 -1216 -832
WIRE -960 -832 -1040 -832
WIRE -672 -832 -864 -832
WIRE -2320 -816 -2544 -816
WIRE -240 -816 -240 -848
WIRE 0 -816 0 -848
WIRE -1216 -784 -1216 -832
WIRE -1888 -720 -1888 -848
WIRE -1792 -720 -1888 -720
WIRE 1344 -720 1344 -864
WIRE 1440 -720 1344 -720
WIRE -2608 -704 -2608 -928
WIRE -2608 -704 -2800 -704
WIRE -2544 -704 -2544 -816
WIRE -2512 -704 -2544 -704
WIRE -1696 -704 -1728 -704
WIRE -1648 -704 -1648 -848
WIRE -1648 -704 -1696 -704
WIRE -1472 -704 -1472 -832
WIRE -1472 -704 -1648 -704
WIRE -864 -704 -864 -832
WIRE -832 -704 -864 -704
WIRE 656 -704 656 -848
WIRE 752 -704 656 -704
WIRE 1536 -704 1504 -704
WIRE 1632 -704 1632 -864
WIRE 1632 -704 1536 -704
WIRE 1744 -704 1632 -704
WIRE -2320 -688 -2320 -816
WIRE -2320 -688 -2448 -688
WIRE -2240 -688 -2320 -688
WIRE -2112 -688 -2176 -688
WIRE -2048 -688 -2112 -688
WIRE -1920 -688 -1984 -688
WIRE -1792 -688 -1920 -688
WIRE -1216 -688 -1216 -704
WIRE -672 -688 -672 -832
WIRE -672 -688 -768 -688
WIRE -560 -688 -672 -688
WIRE -352 -688 -480 -688
WIRE -240 -688 -240 -752
WIRE -240 -688 -352 -688
WIRE -160 -688 -240 -688
WIRE 0 -688 0 -736
WIRE 0 -688 -96 -688
WIRE 96 -688 0 -688
WIRE 848 -688 816 -688
WIRE 944 -688 944 -848
WIRE 944 -688 848 -688
WIRE 976 -688 944 -688
WIRE 1120 -688 1056 -688
WIRE 1184 -688 1120 -688
WIRE 1312 -688 1264 -688
WIRE 1440 -688 1312 -688
WIRE -2512 -672 -2800 -672
WIRE -960 -672 -960 -832
WIRE -832 -672 -960 -672
WIRE 240 -672 240 -848
WIRE 240 -672 160 -672
WIRE 288 -672 240 -672
WIRE 352 -672 288 -672
WIRE 432 -672 368 -672
WIRE 496 -672 432 -672
WIRE 624 -672 576 -672
WIRE 752 -672 624 -672
WIRE 96 -656 48 -656
WIRE -2112 -624 -2112 -688
WIRE -1920 -624 -1920 -688
WIRE -352 -624 -352 -688
WIRE 1120 -624 1120 -688
WIRE 1312 -624 1312 -688
WIRE -672 -608 -672 -688
WIRE 432 -608 432 -672
WIRE 624 -608 624 -672
WIRE -1472 -560 -1472 -704
WIRE -1424 -560 -1472 -560
WIRE -1168 -560 -1344 -560
WIRE -1120 -560 -1168 -560
WIRE -960 -560 -960 -672
WIRE -960 -560 -1040 -560
WIRE 48 -560 48 -656
WIRE -672 -480 -672 -528
WIRE -672 -480 -768 -480
WIRE -352 -480 -352 -544
WIRE -832 -464 -880 -464
WIRE -2112 -448 -2112 -544
WIRE -1696 -448 -1696 -704
WIRE -1696 -448 -2112 -448
WIRE -1168 -448 -1168 -560
WIRE -704 -448 -768 -448
WIRE 1120 -448 1120 -560
WIRE 1536 -448 1536 -704
WIRE 1536 -448 1120 -448
WIRE 432 -432 432 -544
WIRE 848 -432 848 -688
WIRE 848 -432 432 -432
WIRE -1216 -352 -1216 -608
WIRE -1168 -352 -1168 -384
WIRE -1168 -352 -1216 -352
WIRE -880 -352 -880 -464
WIRE -880 -352 -1168 -352
WIRE -704 -352 -704 -448
WIRE -704 -352 -880 -352
WIRE -672 -352 -672 -480
FLAG -2560 -896 0
FLAG -2832 -304 0
FLAG -2736 -304 0
FLAG -2832 -384 +12v
FLAG -2480 -720 +12v
FLAG -2736 -384 -12v
FLAG -2480 -656 -12v
FLAG -1760 -736 +12v
FLAG -1760 -672 -12v
FLAG -1920 -544 0
FLAG 1744 -704 Vout
IOPIN 1744 -704 Out
FLAG 1472 -736 +12v
FLAG 1472 -672 -12v
FLAG 1312 -560 0
FLAG -800 -720 +12v
FLAG -800 -656 -12v
FLAG 48 -560 0
FLAG -352 -480 0
FLAG 128 -704 +12v
FLAG 128 -640 -12v
FLAG -672 -272 0
FLAG -800 -432 +12v
FLAG -800 -496 -12v
FLAG 784 -720 +12v
FLAG 784 -656 -12v
FLAG 624 -544 0
SYMBOL COMPOSITE_SRC -2864 -688 R180
SYMATTR InstName U1
SYMBOL lib\\lib\\sym\\OpAmps\\UniversalOpAmp -2480 -688 R0
SYMATTR InstName U2
SYMBOL voltage -2832 -400 R0
WINDOW 123 0 0 Left 0
WINDOW 39 0 0 Left 0
SYMATTR InstName V1
SYMATTR Value 12
SYMBOL voltage -2736 -400 R0
WINDOW 123 0 0 Left 0
WINDOW 39 0 0 Left 0
SYMATTR InstName V2
SYMATTR Value 12
SYMBOL res -2128 -640 R0
SYMATTR InstName R1
SYMATTR Value 5k
SYMBOL res -1936 -640 R0
SYMATTR InstName R2
SYMATTR Value 5k
SYMBOL cap -2176 -704 R90
WINDOW 0 0 32 VBottom 2
WINDOW 3 32 32 VTop 2
SYMATTR InstName C1
SYMATTR Value 10n
SYMBOL cap -1984 -704 R90
WINDOW 0 0 32 VBottom 2
WINDOW 3 32 32 VTop 2
SYMATTR InstName C2
SYMATTR Value 10n
SYMBOL lib\\lib\\sym\\OpAmps\\UniversalOpAmp -1760 -704 R0
SYMATTR InstName U3
SYMBOL res 1072 -704 R90
WINDOW 0 0 56 VBottom 2
WINDOW 3 32 56 VTop 2
SYMATTR InstName R3
SYMATTR Value 3k
SYMBOL res 1280 -704 R90
WINDOW 0 0 56 VBottom 2
WINDOW 3 32 56 VTop 2
SYMATTR InstName R4
SYMATTR Value 3k
SYMBOL cap 1136 -560 R180
WINDOW 0 24 56 Left 2
WINDOW 3 24 8 Left 2
SYMATTR InstName C3
SYMATTR Value 12n
SYMBOL cap 1328 -560 R180
WINDOW 0 24 56 Left 2
WINDOW 3 24 8 Left 2
SYMATTR InstName C4
SYMATTR Value 12n
SYMBOL lib\\lib\\sym\\OpAmps\\UniversalOpAmp 1472 -704 R0
SYMATTR InstName U4
SYMBOL res -1232 -800 R0
SYMATTR InstName R5
SYMATTR Value 12k
SYMBOL res -1328 -576 R90
WINDOW 0 0 56 VBottom 2
WINDOW 3 32 56 VTop 2
SYMATTR InstName R6
SYMATTR Value 26.1k
SYMBOL res -1024 -576 R90
WINDOW 0 0 56 VBottom 2
WINDOW 3 32 56 VTop 2
SYMATTR InstName R7
SYMATTR Value 26.1k
SYMBOL cap -1184 -448 R0
SYMATTR InstName C5
SYMATTR Value 20n
SYMBOL cap -1344 -848 R90
WINDOW 0 0 32 VBottom 2
WINDOW 3 32 32 VTop 2
SYMATTR InstName C6
SYMATTR Value 10n
SYMBOL cap -1040 -848 R90
WINDOW 0 0 32 VBottom 2
WINDOW 3 32 32 VTop 2
SYMATTR InstName C7
SYMATTR Value 10n
SYMBOL lib\\lib\\sym\\OpAmps\\UniversalOpAmp -800 -688 R0
SYMATTR InstName U5
SYMBOL res -368 -640 R0
SYMATTR InstName R8
SYMATTR Value 150
SYMBOL res -464 -704 R90
WINDOW 0 0 56 VBottom 2
WINDOW 3 32 56 VTop 2
SYMATTR InstName R9
SYMATTR Value 150
SYMBOL cap -96 -704 R90
WINDOW 0 0 32 VBottom 2
WINDOW 3 32 32 VTop 2
SYMATTR InstName C8
SYMATTR Value 10n
SYMBOL cap -224 -752 R180
WINDOW 0 24 56 Left 2
WINDOW 3 24 8 Left 2
SYMATTR InstName C9
SYMATTR Value 10n
SYMBOL res 16 -720 R180
WINDOW 0 36 76 Left 2
WINDOW 3 36 40 Left 2
SYMATTR InstName R10
SYMATTR Value {Rknob+1K}
SYMBOL lib\\lib\\sym\\OpAmps\\UniversalOpAmp 128 -672 R0
SYMATTR InstName U6
SYMBOL lib\\lib\\sym\\OpAmps\\UniversalOpAmp -800 -464 R180
SYMATTR InstName U7
SYMBOL res -688 -624 R0
SYMATTR InstName R11
SYMATTR Value 10k
SYMBOL res -688 -368 R0
SYMATTR InstName R12
SYMATTR Value 82k
SYMBOL res -1232 -704 R0
SYMATTR InstName R13
SYMATTR Value 2k
SYMBOL res 384 -688 R90
WINDOW 0 0 56 VBottom 2
WINDOW 3 32 56 VTop 2
SYMATTR InstName R14
SYMATTR Value 3k
SYMBOL res 592 -688 R90
WINDOW 0 0 56 VBottom 2
WINDOW 3 32 56 VTop 2
SYMATTR InstName R15
SYMATTR Value 3k
SYMBOL cap 448 -544 R180
WINDOW 0 24 56 Left 2
WINDOW 3 24 8 Left 2
SYMATTR InstName C10
SYMATTR Value 12n
SYMBOL cap 640 -544 R180
WINDOW 0 24 56 Left 2
WINDOW 3 24 8 Left 2
SYMATTR InstName C11
SYMATTR Value 12n
SYMBOL lib\\lib\\sym\\OpAmps\\UniversalOpAmp 784 -688 R0
SYMATTR InstName U8
SYMBOL res -16 -1056 R0
SYMATTR InstName R10A
SYMATTR Value 1K
TEXT -3000 -832 Left 2 !.include composite_blackbox.lib
TEXT -3000 -600 Left 2 !.tran 0 200m 150m 1u
TEXT 264 -1112 Left 2 !.param Rknob=90K
TEXT 256 -1064 Left 2 !.step param Rknob 70K 120K 20K
